
**** 03/12/24 17:47:34 ******* PSpice Lite (March 2016) ******* ID# 10813 ****

 ** Profile: "SCHEMATIC1-041303"  [ D:\Project\Circuit_Pspice\0312-PSpiceFiles\SCHEMATIC1\041303.sim ] 


 ****     CIRCUIT DESCRIPTION


******************************************************************************




** Creating circuit file "041303.cir" 
** WARNING: THIS AUTOMATICALLY GENERATED FILE MAY BE OVERWRITTEN BY SUBSEQUENT SIMULATIONS

*Libraries: 
* Profile Libraries :
* Local Libraries :
* From [PSPICE NETLIST] section of C:\SPB_Data\cdssetup\OrCAD_PSpice\17.2.0\PSpice.ini file:
.lib "nomd.lib" 

*Analysis directives: 
.AC DEC 100 1 10K
.OPTIONS ADVCONV
.PROBE64 V(alias(*)) I(alias(*)) W(alias(*)) D(alias(*)) NOISE(alias(*)) 
.INC "..\SCHEMATIC1.net" 



**** INCLUDING SCHEMATIC1.net ****
* source 0312
V_V1         N00164 0  AC 0
+SIN 0 100 60 0 0 0
R_R1         N00164 N00171  10k TC=0,0 
L_L1         N00171 OUTPUT  50u  
C_C1         OUTPUT 0  1u  TC=0,0 
V_V2         N00566 N00587 10
R_R2         0 N00573  1k TC=0,0 
R_R3         N00566 N00573  1k TC=0,0 
C_C2         N00573 0  1n  TC=0,0 
C_C3         N00939 0  10U  TC=0,0 
R_R4         N00931 N00939  200 TC=0,0 
R_R5         0 N00939  400 TC=0,0 
V_V3         N00931 0 DC 0Vdc AC 1m 

**** RESUMING 041303.cir ****
.END

**** 03/12/24 17:47:34 ******* PSpice Lite (March 2016) ******* ID# 10813 ****

 ** Profile: "SCHEMATIC1-041303"  [ D:\Project\Circuit_Pspice\0312-PSpiceFiles\SCHEMATIC1\041303.sim ] 


 ****     SMALL SIGNAL BIAS SOLUTION       TEMPERATURE =   27.000 DEG C


******************************************************************************



 NODE   VOLTAGE     NODE   VOLTAGE     NODE   VOLTAGE     NODE   VOLTAGE


(N00164)    0.0000 (N00171)    0.0000 (N00566)    0.0000 (N00573)    0.0000     

(N00587)  -10.0000 (N00931)    0.0000 (N00939)    0.0000 (OUTPUT)    0.0000 




    VOLTAGE SOURCE CURRENTS
    NAME         CURRENT

    V_V1         0.000E+00
    V_V2         0.000E+00
    V_V3         0.000E+00

    TOTAL POWER DISSIPATION   0.00E+00  WATTS



          JOB CONCLUDED

**** 03/12/24 17:47:34 ******* PSpice Lite (March 2016) ******* ID# 10813 ****

 ** Profile: "SCHEMATIC1-041303"  [ D:\Project\Circuit_Pspice\0312-PSpiceFiles\SCHEMATIC1\041303.sim ] 


 ****     JOB STATISTICS SUMMARY


******************************************************************************



  Total job time (using Solver 1)   =         .02
