
**** 03/12/24 17:36:50 ******* PSpice Lite (March 2016) ******* ID# 10813 ****

 ** Profile: "SCHEMATIC1-031202"  [ D:\Project\Circuit_Pspice\0312-PSpiceFiles\SCHEMATIC1\031202.sim ] 


 ****     CIRCUIT DESCRIPTION


******************************************************************************




** Creating circuit file "031202.cir" 
** WARNING: THIS AUTOMATICALLY GENERATED FILE MAY BE OVERWRITTEN BY SUBSEQUENT SIMULATIONS

*Libraries: 
* Profile Libraries :
* Local Libraries :
* From [PSPICE NETLIST] section of C:\SPB_Data\cdssetup\OrCAD_PSpice\17.2.0\PSpice.ini file:
.lib "nomd.lib" 

*Analysis directives: 
.DC LIN V_V2 0 10 1 
.OPTIONS ADVCONV
.PROBE64 V(alias(*)) I(alias(*)) W(alias(*)) D(alias(*)) NOISE(alias(*)) 
.INC "..\SCHEMATIC1.net" 



**** INCLUDING SCHEMATIC1.net ****
* source 0312
V_V1         N00164 0  AC 0
+SIN 0 100 60 0 0 0
R_R1         N00164 N00171  10k TC=0,0 
L_L1         N00171 OUTPUT  50u  
C_C1         OUTPUT 0  1u  TC=0,0 
V_V2         N00566 0 10
R_R2         0 N00573  1k TC=0,0 
R_R3         N00566 N00573  1k TC=0,0 
C_C2         N00573 0  1n  TC=0,0 

**** RESUMING 031202.cir ****
.END


          JOB CONCLUDED

**** 03/12/24 17:36:50 ******* PSpice Lite (March 2016) ******* ID# 10813 ****

 ** Profile: "SCHEMATIC1-031202"  [ D:\Project\Circuit_Pspice\0312-PSpiceFiles\SCHEMATIC1\031202.sim ] 


 ****     JOB STATISTICS SUMMARY


******************************************************************************



  Total job time (using Solver 1)   =         .02
