
**** 03/12/24 17:28:08 ******* PSpice Lite (March 2016) ******* ID# 10813 ****

 ** Profile: "SCHEMATIC1-031201"  [ D:\Project\Circuit_Pspice\0312-PSpiceFiles\SCHEMATIC1\031201.sim ] 


 ****     CIRCUIT DESCRIPTION


******************************************************************************




** Creating circuit file "031201.cir" 
** WARNING: THIS AUTOMATICALLY GENERATED FILE MAY BE OVERWRITTEN BY SUBSEQUENT SIMULATIONS

*Libraries: 
* Profile Libraries :
* Local Libraries :
* From [PSPICE NETLIST] section of C:\SPB_Data\cdssetup\OrCAD_PSpice\17.2.0\PSpice.ini file:
.lib "nomd.lib" 

*Analysis directives: 
.TRAN  0 100m 0 1m 
.OPTIONS ADVCONV
.PROBE64 V(alias(*)) I(alias(*)) W(alias(*)) D(alias(*)) NOISE(alias(*)) 
.INC "..\SCHEMATIC1.net" 



**** INCLUDING SCHEMATIC1.net ****
* source 0312
V_V1         N00164 0  AC 0
+SIN 0 100 60 0 0 0
R_R1         N00164 N00171  10k TC=0,0 
L_L1         N00171 OUTPUT  50u  
C_C1         OUTPUT 0  1u  TC=0,0 

**** RESUMING 031201.cir ****
.END

**** 03/12/24 17:28:08 ******* PSpice Lite (March 2016) ******* ID# 10813 ****

 ** Profile: "SCHEMATIC1-031201"  [ D:\Project\Circuit_Pspice\0312-PSpiceFiles\SCHEMATIC1\031201.sim ] 


 ****     INITIAL TRANSIENT SOLUTION       TEMPERATURE =   27.000 DEG C


******************************************************************************



 NODE   VOLTAGE     NODE   VOLTAGE     NODE   VOLTAGE     NODE   VOLTAGE


(N00164)    0.0000 (N00171)    0.0000 (OUTPUT)    0.0000 




    VOLTAGE SOURCE CURRENTS
    NAME         CURRENT

    V_V1         0.000E+00

    TOTAL POWER DISSIPATION   0.00E+00  WATTS



          JOB CONCLUDED

**** 03/12/24 17:28:08 ******* PSpice Lite (March 2016) ******* ID# 10813 ****

 ** Profile: "SCHEMATIC1-031201"  [ D:\Project\Circuit_Pspice\0312-PSpiceFiles\SCHEMATIC1\031201.sim ] 


 ****     JOB STATISTICS SUMMARY


******************************************************************************



  Total job time (using Solver 1)   =         .03
