
**** 03/28/24 16:14:25 ******* PSpice Lite (March 2016) ******* ID# 10813 ****

 ** Profile: "SCHEMATIC1-032801"  [ D:\Project\Circuit_Pspice\240328_Application_of_Diode-PSpiceFiles\SCHEMATIC1\032801.sim ] 


 ****     CIRCUIT DESCRIPTION


******************************************************************************




** Creating circuit file "032801.cir" 
** WARNING: THIS AUTOMATICALLY GENERATED FILE MAY BE OVERWRITTEN BY SUBSEQUENT SIMULATIONS

*Libraries: 
* Profile Libraries :
* Local Libraries :
* From [PSPICE NETLIST] section of C:\SPB_Data\cdssetup\OrCAD_PSpice\17.2.0\PSpice.ini file:
.lib "nomd.lib" 

*Analysis directives: 
.TRAN  0 100ms 0 0.1ms 
.OPTIONS ADVCONV
.PROBE64 V(alias(*)) I(alias(*)) W(alias(*)) D(alias(*)) NOISE(alias(*)) 
.INC "..\SCHEMATIC1.net" 



**** INCLUDING SCHEMATIC1.net ****
* source 240328_APPLICATION_OF_DIODE
D_D1         N00431 N00129 D1N4004 
R_R1         0 N00129  5.6k TC=0,0 
V_V1         N00431 0  AC 0
+SIN 0 5 60 0 0 0

**** RESUMING 032801.cir ****
.END

**** 03/28/24 16:14:25 ******* PSpice Lite (March 2016) ******* ID# 10813 ****

 ** Profile: "SCHEMATIC1-032801"  [ D:\Project\Circuit_Pspice\240328_Application_of_Diode-PSpiceFiles\SCHEMATIC1\032801.sim ] 


 ****     Diode MODEL PARAMETERS


******************************************************************************




               D1N4004         D1N4001         
          IS   14.110000E-09   14.110000E-09 
           N    1.984           1.984        
         IKF   94.81           94.81         
          BV  600              75            
         IBV   10.000000E-06   10.000000E-06 
          RS     .03389          .03389      
          TT    5.700000E-06    5.700000E-06 
         CJO   25.890000E-12   25.890000E-12 
          VJ     .3245           .3245       
           M     .44             .44         


**** 03/28/24 16:14:25 ******* PSpice Lite (March 2016) ******* ID# 10813 ****

 ** Profile: "SCHEMATIC1-032801"  [ D:\Project\Circuit_Pspice\240328_Application_of_Diode-PSpiceFiles\SCHEMATIC1\032801.sim ] 


 ****     INITIAL TRANSIENT SOLUTION       TEMPERATURE =   27.000 DEG C


******************************************************************************



 NODE   VOLTAGE     NODE   VOLTAGE     NODE   VOLTAGE     NODE   VOLTAGE


(N00129)-362.3E-21 (N00431)    0.0000 




    VOLTAGE SOURCE CURRENTS
    NAME         CURRENT

    V_V1         6.469E-23

    TOTAL POWER DISSIPATION   0.00E+00  WATTS



          JOB CONCLUDED

**** 03/28/24 16:14:25 ******* PSpice Lite (March 2016) ******* ID# 10813 ****

 ** Profile: "SCHEMATIC1-032801"  [ D:\Project\Circuit_Pspice\240328_Application_of_Diode-PSpiceFiles\SCHEMATIC1\032801.sim ] 


 ****     JOB STATISTICS SUMMARY


******************************************************************************



  Total job time (using Solver 1)   =         .03
