
**** 04/09/24 19:10:39 ******* PSpice Lite (March 2016) ******* ID# 10813 ****

 ** Profile: "SCHEMATIC1-040901"  [ D:\Project\Circuit_Pspice\0409Large_small_signal_of_BJT-PSpiceFiles\SCHEMATIC1\040901.sim ] 


 ****     CIRCUIT DESCRIPTION


******************************************************************************




** Creating circuit file "040901.cir" 
** WARNING: THIS AUTOMATICALLY GENERATED FILE MAY BE OVERWRITTEN BY SUBSEQUENT SIMULATIONS

*Libraries: 
* Profile Libraries :
* Local Libraries :
* From [PSPICE NETLIST] section of C:\SPB_Data\cdssetup\OrCAD_PSpice\17.2.0\PSpice.ini file:
.lib "nomd.lib" 

*Analysis directives: 
.DC LIN V_V2 0 12 0.1 
.OPTIONS ADVCONV
.PROBE64 V(alias(*)) I(alias(*)) W(alias(*)) D(alias(*)) NOISE(alias(*)) 
.INC "..\SCHEMATIC1.net" 



**** INCLUDING SCHEMATIC1.net ****
* source 0409LARGE_SMALL_SIGNAL_OF_BJT
V_V1         N00128 0 2v
V_V2         N00146 0 0Vdc
R_R1         N00128 N00135  4.7k TC=0,0 
R_R2         N00142 N00146  100 TC=0,0 
Q_Q1         N00142 N00135 0 Q2N3904

**** RESUMING 040901.cir ****
.END

**** 04/09/24 19:10:39 ******* PSpice Lite (March 2016) ******* ID# 10813 ****

 ** Profile: "SCHEMATIC1-040901"  [ D:\Project\Circuit_Pspice\0409Large_small_signal_of_BJT-PSpiceFiles\SCHEMATIC1\040901.sim ] 


 ****     BJT MODEL PARAMETERS


******************************************************************************




               Q2N3904         
               NPN             
       LEVEL    1            
          IS    6.734000E-15 
          BF  416.4          
          NF    1            
         VAF   74.03         
         IKF     .06678      
         ISE    6.734000E-15 
          NE    1.259        
          BR     .7371       
          NR    1            
         ISS    0            
          RB   10            
          RE    0            
          RC    1            
         CJE    4.493000E-12 
         VJE     .75         
         MJE     .2593       
         CJC    3.638000E-12 
         VJC     .75         
         MJC     .3085       
        XCJC    1            
         CJS    0            
         VJS     .75         
          TF  301.200000E-12 
         XTF    2            
         VTF    4            
         ITF     .4          
          TR  239.500000E-09 
         XTB    1.5          
          KF    0            
          AF    1            
          CN    2.42         
           D     .87         



          JOB CONCLUDED

**** 04/09/24 19:10:39 ******* PSpice Lite (March 2016) ******* ID# 10813 ****

 ** Profile: "SCHEMATIC1-040901"  [ D:\Project\Circuit_Pspice\0409Large_small_signal_of_BJT-PSpiceFiles\SCHEMATIC1\040901.sim ] 


 ****     JOB STATISTICS SUMMARY


******************************************************************************



  Total job time (using Solver 1)   =         .28
