
**** 03/28/24 16:53:21 ******* PSpice Lite (March 2016) ******* ID# 10813 ****

 ** Profile: "SCHEMATIC1-032802"  [ D:\Project\Circuit_Pspice\240328_Application_of_Diode-PSpiceFiles\SCHEMATIC1\032802.sim ] 


 ****     CIRCUIT DESCRIPTION


******************************************************************************




** Creating circuit file "032802.cir" 
** WARNING: THIS AUTOMATICALLY GENERATED FILE MAY BE OVERWRITTEN BY SUBSEQUENT SIMULATIONS

*Libraries: 
* Profile Libraries :
* Local Libraries :
* From [PSPICE NETLIST] section of C:\SPB_Data\cdssetup\OrCAD_PSpice\17.2.0\PSpice.ini file:
.lib "nomd.lib" 

*Analysis directives: 
.DC LIN V_V5 -5 5 0.1 
.OPTIONS ADVCONV
.PROBE64 V(alias(*)) I(alias(*)) W(alias(*)) D(alias(*)) NOISE(alias(*)) 
.INC "..\SCHEMATIC1.net" 



**** INCLUDING SCHEMATIC1.net ****
* source 240328_APPLICATION_OF_DIODE
D_D1         N00900 N00884 D1N4004 
R_R1         N00900 N00893  5.6k TC=0,0 
D_D2         N00884 N00893 D1N4004 
D_D3         N00900 0 D1N4004 
D_D4         0 N00893 D1N4004 
C_C1         N00900 N00893  22u  TC=0,0 
V_V1         N00884 0  AC 0
+SIN 0 5 60 0 0 0
R_R6         N02690 N02874  5.6k TC=0,0 
D_D6         N02690 N02717 D1N4004 
D_D8         N02713 N02690 D1N4004 
V_V3         N02717 0 2vdc
V_V4         0 N02713 3vdc
V_V5         N02874 0 0Vdc

**** RESUMING 032802.cir ****
.END

**** 03/28/24 16:53:21 ******* PSpice Lite (March 2016) ******* ID# 10813 ****

 ** Profile: "SCHEMATIC1-032802"  [ D:\Project\Circuit_Pspice\240328_Application_of_Diode-PSpiceFiles\SCHEMATIC1\032802.sim ] 


 ****     Diode MODEL PARAMETERS


******************************************************************************




               D1N4004         D1N4001         
          IS   14.110000E-09   14.110000E-09 
           N    1.984           1.984        
         IKF   94.81           94.81         
          BV  600              75            
         IBV   10.000000E-06   10.000000E-06 
          RS     .03389          .03389      
          TT    5.700000E-06    5.700000E-06 
         CJO   25.890000E-12   25.890000E-12 
          VJ     .3245           .3245       
           M     .44             .44         



          JOB CONCLUDED

**** 03/28/24 16:53:21 ******* PSpice Lite (March 2016) ******* ID# 10813 ****

 ** Profile: "SCHEMATIC1-032802"  [ D:\Project\Circuit_Pspice\240328_Application_of_Diode-PSpiceFiles\SCHEMATIC1\032802.sim ] 


 ****     JOB STATISTICS SUMMARY


******************************************************************************



  Total job time (using Solver 1)   =         .08
