
**** 04/22/24 23:47:03 ******* PSpice Lite (March 2016) ******* ID# 10813 ****

 ** Profile: "SCHEMATIC1-0401"  [ D:\Project\Circuit_Pspice\midexam-PSpiceFiles\SCHEMATIC1\0401.sim ] 


 ****     CIRCUIT DESCRIPTION


******************************************************************************




** Creating circuit file "0401.cir" 
** WARNING: THIS AUTOMATICALLY GENERATED FILE MAY BE OVERWRITTEN BY SUBSEQUENT SIMULATIONS

*Libraries: 
* Profile Libraries :
* Local Libraries :
* From [PSPICE NETLIST] section of C:\SPB_Data\cdssetup\OrCAD_PSpice\17.2.0\PSpice.ini file:
.lib "nomd.lib" 

*Analysis directives: 
.DC LIN V_V2 0 3 0.1 
.OPTIONS ADVCONV
.PROBE64 V(alias(*)) I(alias(*)) W(alias(*)) D(alias(*)) NOISE(alias(*)) 
.INC "..\SCHEMATIC1.net" 



**** INCLUDING SCHEMATIC1.net ****
* source MIDEXAM
V_V1         N00146 0 3Vdc
V_V2         N00128 0 0Vdc
R_R1         N00146 N00244  50k TC=0,0 
R_R2         N00135 N00128  100 TC=0,0 
Q_Q1         N00135 N00244 0 Q2N3904

**** RESUMING 0401.cir ****
.END

**** 04/22/24 23:47:03 ******* PSpice Lite (March 2016) ******* ID# 10813 ****

 ** Profile: "SCHEMATIC1-0401"  [ D:\Project\Circuit_Pspice\midexam-PSpiceFiles\SCHEMATIC1\0401.sim ] 


 ****     BJT MODEL PARAMETERS


******************************************************************************




               Q2N3904         
               NPN             
       LEVEL    1            
          IS    6.734000E-15 
          BF  416.4          
          NF    1            
         VAF   74.03         
         IKF     .06678      
         ISE    6.734000E-15 
          NE    1.259        
          BR     .7371       
          NR    1            
         ISS    0            
          RB   10            
          RE    0            
          RC    1            
         CJE    4.493000E-12 
         VJE     .75         
         MJE     .2593       
         CJC    3.638000E-12 
         VJC     .75         
         MJC     .3085       
        XCJC    1            
         CJS    0            
         VJS     .75         
          TF  301.200000E-12 
         XTF    2            
         VTF    4            
         ITF     .4          
          TR  239.500000E-09 
         XTB    1.5          
          KF    0            
          AF    1            
          CN    2.42         
           D     .87         



          JOB CONCLUDED

**** 04/22/24 23:47:03 ******* PSpice Lite (March 2016) ******* ID# 10813 ****

 ** Profile: "SCHEMATIC1-0401"  [ D:\Project\Circuit_Pspice\midexam-PSpiceFiles\SCHEMATIC1\0401.sim ] 


 ****     JOB STATISTICS SUMMARY


******************************************************************************



  Total job time (using Solver 1)   =         .05
