
**** 04/01/24 20:42:21 ******* PSpice Lite (March 2016) ******* ID# 10813 ****

 ** Profile: "SCHEMATIC1-040101"  [ D:\Project\Circuit_Pspice\040101-PSpiceFiles\SCHEMATIC1\040101.sim ] 


 ****     CIRCUIT DESCRIPTION


******************************************************************************




** Creating circuit file "040101.cir" 
** WARNING: THIS AUTOMATICALLY GENERATED FILE MAY BE OVERWRITTEN BY SUBSEQUENT SIMULATIONS

*Libraries: 
* Profile Libraries :
* Local Libraries :
* From [PSPICE NETLIST] section of C:\SPB_Data\cdssetup\OrCAD_PSpice\17.2.0\PSpice.ini file:
.lib "nomd.lib" 

*Analysis directives: 
.DC LIN V_V1 -10 10 0.1 
.OPTIONS ADVCONV
.PROBE64 V(alias(*)) I(alias(*)) W(alias(*)) D(alias(*)) NOISE(alias(*)) 
.INC "..\SCHEMATIC1.net" 



**** INCLUDING SCHEMATIC1.net ****
* source 040101
D_D1         N00153 N00158 D1N4004 
D_D2         N00181 N00158 D1N4004 
V_V2         N00181 0 2v
R_R1         0 N00158  1k TC=0,0 
V_V1         N00153 0 2v

**** RESUMING 040101.cir ****
.END

**** 04/01/24 20:42:21 ******* PSpice Lite (March 2016) ******* ID# 10813 ****

 ** Profile: "SCHEMATIC1-040101"  [ D:\Project\Circuit_Pspice\040101-PSpiceFiles\SCHEMATIC1\040101.sim ] 


 ****     Diode MODEL PARAMETERS


******************************************************************************




               D1N4004         D1N4001         
          IS   14.110000E-09   14.110000E-09 
           N    1.984           1.984        
         IKF   94.81           94.81         
          BV  600              75            
         IBV   10.000000E-06   10.000000E-06 
          RS     .03389          .03389      
          TT    5.700000E-06    5.700000E-06 
         CJO   25.890000E-12   25.890000E-12 
          VJ     .3245           .3245       
           M     .44             .44         



          JOB CONCLUDED

**** 04/01/24 20:42:21 ******* PSpice Lite (March 2016) ******* ID# 10813 ****

 ** Profile: "SCHEMATIC1-040101"  [ D:\Project\Circuit_Pspice\040101-PSpiceFiles\SCHEMATIC1\040101.sim ] 


 ****     JOB STATISTICS SUMMARY


******************************************************************************



  Total job time (using Solver 1)   =         .03
